*Material, name=Phrozen_visco
*Elastic,moduli=INSTANTANEOUS
1587.7,0.34
*Viscoelastic,time=Prony
0.03998700816655301,0.0,1e-10
0.03998700816676682,0.0,1e-09
0.039987008197941584,0.0,1e-08
0.039986988417330976,0.0,1e-07
0.03998669836622034,0.0,1e-06
0.0399565931001566,0.0,1e-05
0.038035710041023005,0.0,0.0001
0.027490066679797816,0.0,0.001
0.023832912451362775,0.0,0.01
0.02142058193741622,0.0,0.1
0.014235721469794295,0.0,1.0
0.0048941906440239024,0.0,10.0
0.000904288907219584,0.0,100.0
0.0006957268263332767,0.0,1000.0
2.9681960410075066e-05,0.0,10000.0
0.00030628818043435864,0.0,100000.0
0.00034914607951368404,0.0,1000000.0
0.00034957007083004837,0.0,10000000.0
0.00034956990677304016,0.0,100000000.0
0.00034956878830750063,0.0,1000000000.0
*TRS,DEFINITION = WLF
363,22.84,214.44
*Conductivity
0.16,273.
0.16,303.
0.2,308.
0.21,393.
0.21,473.
*Density
1.2e-09
*Expansion,zero=<Tref>
0.0006,273
0.0006,303.
0.0006,308
0.0006,473.
*Specific Heat
1.6e+09,273
1.8e+09,360.
2.3e+09,393.
2.3e+09,473.
